Circuit: *** SPICE deck for cell 16_bit{sch} from library 16bit

Ignoring BSIM parameter XL
Ignoring BSIM parameter XW
Ignoring BSIM parameter XL
Ignoring BSIM parameter XW
WARNING: Node OUT is floating.

WARNING: Less than two connections to node OUT.  This node is used by CLOAD.
Warning: Pd = 0 is less than W.
Warning: Ps = 0 is less than W.
Warning: Pd = 0 is less than W.
Warning: Ps = 0 is less than W.
Warning: Pd = 0 is less than W.
Warning: Ps = 0 is less than W.
Early termination of direct N-R iteration.
Direct Newton iteration failed to find .op point.  (Use ".option noopiter" to skip.)
Starting Gmin stepping
Gmin = 10
Gmin = 1.07374
Gmin = 0.115292
Gmin = 0.0123794
Gmin = 0.00132923
Gmin = 0.000142725
Gmin = 1.5325e-005
Gmin = 1.6455e-006
Gmin = 1.76685e-007
Gmin = 1.89714e-008
Gmin = 2.03704e-009
Gmin = 2.18725e-010
Gmin = 2.34854e-011
Gmin = 2.52173e-012
Gmin = 2.70769e-013
Gmin = 0
Gmin stepping succeeded in finding the operating point.



Measurement "tf" FAIL'ed

Measurement "tr" FAIL'ed


Date: Wed Aug 28 19:00:28 2024
Total elapsed time: 0.681 seconds.

tnom = 27
temp = 27
method = modified trap
totiter = 2590
traniter = 2225
tranpoints = 1075
accept = 1065
rejected = 10
matrix size = 359
fillins = 774
solver = Normal
Thread vector: 184.5/74.4[16] 68.9/22.5[16] 15.1/8.3[10] 2.2/6.4[1]  2592/500
Matrix Compiler1: 114.99 KB object code size  26.9/18.2/[10.0]
Matrix Compiler2: 59.34 KB object code size  7.5/6.2/[2.5]

