Circuit: *** SPICE deck for cell 16bit_layout{lay} from library 16bit

Ignoring BSIM parameter XL
Ignoring BSIM parameter XW
Ignoring BSIM parameter XL
Ignoring BSIM parameter XW
WARNING: Node NET@14 is floating.
WARNING: Node NET@25 is floating.
WARNING: Node NET@89 is floating.
WARNING: Node _4BIT_LAY@5:NET@1738 is floating.
WARNING: Node _4BIT_LAY@6_A3 is floating.
WARNING: Node _4BIT_LAY@6_A2 is floating.
WARNING: Node _4BIT_LAY@6_A1 is floating.
WARNING: Node NET@124 is floating.
WARNING: Node _4BIT_LAY@6_A0 is floating.
WARNING: Node _4BIT_LAY@6:NET@1738 is floating.
WARNING: Node _4BIT_LAY@7_A3 is floating.
WARNING: Node NET@102 is floating.
WARNING: Node _4BIT_LAY@7_A2 is floating.
WARNING: Node _4BIT_LAY@7_A1 is floating.
WARNING: Node _4BIT_LAY@7_A0 is floating.
WARNING: Node _4BIT_LAY@7:NET@1738 is floating.
WARNING: Node _4BIT_LAY@8_A3 is floating.
WARNING: Node B10 is floating.
WARNING: Node _4BIT_LAY@8_A2 is floating.
WARNING: Node NET@135 is floating.
WARNING: Node _4BIT_LAY@8_A1 is floating.
WARNING: Node NET@147 is floating.
WARNING: Node _4BIT_LAY@8_A0 is floating.
WARNING: Node _4BIT_LAY@8:NET@1738 is floating.
WARNING: Node _4BIT_LAY@9_A3 is floating.
WARNING: Node NET@127 is floating.
WARNING: Node _4BIT_LAY@9_A2 is floating.
WARNING: Node NET@126 is floating.
WARNING: Node _4BIT_LAY@9_A1 is floating.
WARNING: Node NET@125 is floating.
WARNING: Node _4BIT_LAY@9_A0 is floating.
WARNING: Node _4BIT_LAY@9:NET@1738 is floating.
WARNING: Node NET@161 is floating.
WARNING: Node NOR_LAYO@0:NET@16 is floating.
WARNING: Node OUT is floating.

WARNING: Less than two connections to node VDD.  This node is used by VDD.
WARNING: Less than two connections to node A15.  This node is used by VA15.
WARNING: Less than two connections to node A14.  This node is used by VA14.
WARNING: Less than two connections to node A13.  This node is used by VA13.
WARNING: Less than two connections to node A12.  This node is used by VA12.
WARNING: Less than two connections to node A11.  This node is used by VA11.
WARNING: Less than two connections to node A10.  This node is used by VA10.
WARNING: Less than two connections to node A9.  This node is used by VA9.
WARNING: Less than two connections to node A8.  This node is used by VA8.
WARNING: Less than two connections to node A7.  This node is used by VA7.
WARNING: Less than two connections to node A6.  This node is used by VA6.
WARNING: Less than two connections to node A5.  This node is used by VA5.
WARNING: Less than two connections to node A4.  This node is used by VA4.
WARNING: Less than two connections to node A3.  This node is used by VA3.
WARNING: Less than two connections to node A2.  This node is used by VA2.
WARNING: Less than two connections to node A1.  This node is used by VA1.
WARNING: Less than two connections to node A0.  This node is used by VA0.
WARNING: Less than two connections to node B14.  This node is used by VB14.
WARNING: Less than two connections to node B9.  This node is used by VB9.
WARNING: Less than two connections to node B8.  This node is used by VB8.
WARNING: Less than two connections to node B6.  This node is used by VB6.
WARNING: Less than two connections to node B5.  This node is used by VB5.
WARNING: Less than two connections to node B4.  This node is used by VB4.
WARNING: Less than two connections to node B0.  This node is used by VB0.
WARNING: Less than two connections to node OUT.  This node is used by CLOAD.
Early termination of direct N-R iteration.
Direct Newton iteration failed to find .op point.  (Use ".option noopiter" to skip.)
Starting Gmin stepping
Gmin = 10
Gmin = 1.07374
Gmin = 0.115292
Gmin = 0.0123794
Gmin = 0.00132923
Gmin = 0.000142725
Gmin = 1.5325e-005
Gmin = 1.6455e-006
Gmin = 1.76685e-007
Gmin = 1.89714e-008
Gmin = 2.03704e-009
Gmin = 2.18725e-010
Gmin = 2.34854e-011
Gmin = 2.52173e-012
Gmin = 2.70769e-013
Gmin = 0
Gmin stepping succeeded in finding the operating point.



Measurement "tf" FAIL'ed

Measurement "tr" FAIL'ed


Date: Tue Aug 20 22:01:41 2024
Total elapsed time: 0.841 seconds.

tnom = 27
temp = 27
method = modified trap
totiter = 2419
traniter = 2121
tranpoints = 1055
accept = 1052
rejected = 3
matrix size = 402
fillins = 894
solver = Normal
Thread vector: 436.4/57.8[16] 61.7/25.5[16] 15.3/10.7[7] 3.0/10.9[1]  2592/500
Matrix Compiler1: 215.63 KB object code size  53.6/30.6/[14.2]
Matrix Compiler2: 72.96 KB object code size  10.2/16.8/[4.6]

