Circuit: *** SPICE deck for cell 1_bit{sch} from library 1bit

Ignoring BSIM parameter XL
Ignoring BSIM parameter XW
Ignoring BSIM parameter XL
Ignoring BSIM parameter XW
WARNING: Node OUT is floating.

WARNING: Less than two connections to node OUT.  This node is used by CLOAD.
Warning: Pd = 0 is less than W.
Warning: Ps = 0 is less than W.
Warning: Pd = 0 is less than W.
Warning: Ps = 0 is less than W.
Direct Newton iteration for .op point succeeded.


Measurement "tf" FAIL'ed

Measurement "tr" FAIL'ed


Date: Fri Aug 16 15:39:04 2024
Total elapsed time: 0.107 seconds.

tnom = 27
temp = 27
method = modified trap
totiter = 3076
traniter = 3061
tranpoints = 1163
accept = 1125
rejected = 38
matrix size = 16
fillins = 2
solver = Normal
Matrix Compiler1: 1.28 KB object code size  0.3/0.1/[0.1]
Matrix Compiler2: off  [0.1]/0.2/0.1

