Circuit: *** SPICE deck for cell 4_bit{sch} from library 4bit

