Circuit: *** SPICE deck for cell 4bit_layout{lay} from library 4bit

Ignoring BSIM parameter XL
Ignoring BSIM parameter XW
Ignoring BSIM parameter XL
Ignoring BSIM parameter XW
WARNING: Node OUT is floating.

WARNING: Less than two connections to node OUT.  This node is used by CLOAD.
Direct Newton iteration for .op point succeeded.


Measurement "tf" FAIL'ed

Measurement "tr" FAIL'ed


Date: Tue Aug 20 13:26:54 2024
Total elapsed time: 0.559 seconds.

tnom = 27
temp = 27
method = modified trap
totiter = 2275
traniter = 2241
tranpoints = 1089
accept = 1075
rejected = 14
matrix size = 78
fillins = 118
solver = Normal
Thread vector: 80.6/45.0[10] 16.9/7.7[9] 3.3/6.9[1] 0.6/8.0[1]  2592/500
Matrix Compiler1: 19.29 KB object code size  4.8/3.1/[1.2]
Matrix Compiler2: 11.66 KB object code size  1.7/2.0/[0.7]

