Circuit: *** SPICE deck for cell and{sch} from library AND

Ignoring BSIM parameter XL
Ignoring BSIM parameter XW
Ignoring BSIM parameter XL
Ignoring BSIM parameter XW
Warning: Pd = 0 is less than W.
Warning: Ps = 0 is less than W.
Warning: Pd = 0 is less than W.
Warning: Ps = 0 is less than W.
.OP point found by inspection.


Measurement "tf" FAIL'ed
tr=1.87303e-007 FROM 1.26975e-008 TO 2e-007


Date: Thu Aug 15 14:08:58 2024
Total elapsed time: 0.152 seconds.

tnom = 27
temp = 27
method = modified trap
totiter = 2185
traniter = 2185
tranpoints = 1076
accept = 1070
rejected = 6
matrix size = 5
fillins = 0
solver = Normal
Matrix Compiler1: 150 bytes object code size  0.1/0.1/[0.0]
Matrix Compiler2: 329 bytes object code size  0.1/0.1/[0.0]

