Circuit: *** SPICE deck for cell nand2_layout{lay} from library NAND

Ignoring BSIM parameter XL
Ignoring BSIM parameter XW
Ignoring BSIM parameter XL
Ignoring BSIM parameter XW
Direct Newton iteration for .op point succeeded.

tf=7.49045e-008 FROM 7.50955e-008 TO 1.5e-007
tr=6.97651e-008 FROM 8.02349e-008 TO 1.5e-007


Date: Wed Aug 21 22:55:30 2024
Total elapsed time: 0.032 seconds.

tnom = 27
temp = 27
method = modified trap
totiter = 2261
traniter = 2256
tranpoints = 1093
accept = 1082
rejected = 11
matrix size = 8
fillins = 0
solver = Normal
Matrix Compiler1: 336 bytes object code size  0.1/0.0/[0.0]
Matrix Compiler2: off  [0.0]/0.1/0.1

