Circuit: *** SPICE deck for cell nand_gate{sch} from library NAND

Ignoring BSIM parameter XL
Ignoring BSIM parameter XW
Ignoring BSIM parameter XL
Ignoring BSIM parameter XW
Warning: Pd = 0 is less than W.
Warning: Ps = 0 is less than W.
Warning: Pd = 0 is less than W.
Warning: Ps = 0 is less than W.
Direct Newton iteration for .op point succeeded.

tf=7.52586e-008 FROM 7.47414e-008 TO 1.5e-007
tr=7.25909e-008 FROM 7.74091e-008 TO 1.5e-007


Date: Fri Aug 16 15:35:51 2024
Total elapsed time: 0.083 seconds.

tnom = 27
temp = 27
method = modified trap
totiter = 2378
traniter = 2370
tranpoints = 1091
accept = 1078
rejected = 13
matrix size = 8
fillins = 0
solver = Normal
Matrix Compiler1: 336 bytes object code size  0.1/0.1/[0.0]
Matrix Compiler2: 624 bytes object code size  0.1/0.1/[0.1]

