Circuit: *** SPICE deck for cell nand_gate_4in{sch} from library NAND

Ignoring BSIM parameter XL
Ignoring BSIM parameter XW
Ignoring BSIM parameter XL
Ignoring BSIM parameter XW
Warning: Pd = 0 is less than W.
Warning: Ps = 0 is less than W.
Warning: Pd = 0 is less than W.
Warning: Ps = 0 is less than W.
Direct Newton iteration for .op point succeeded.

tf=4.9665e-008 FROM 1.50335e-007 TO 2e-007

Measurement "tr" FAIL'ed


Date: Wed Aug 21 23:01:47 2024
Total elapsed time: 0.040 seconds.

tnom = 27
temp = 27
method = modified trap
totiter = 3522
traniter = 3513
tranpoints = 1254
accept = 1194
rejected = 60
matrix size = 14
fillins = 0
solver = Normal
Matrix Compiler1: 672 bytes object code size  0.1/0.1/[0.1]
Matrix Compiler2: off  [0.1]/0.1/0.1

