Circuit: *** SPICE deck for cell nand_test{sch} from library NAND

Ignoring BSIM parameter XL
Ignoring BSIM parameter XW
Ignoring BSIM parameter XL
Ignoring BSIM parameter XW
Warning: Pd = 0 is less than W.
Warning: Ps = 0 is less than W.
Warning: Pd = 0 is less than W.
Warning: Ps = 0 is less than W.
Direct Newton iteration for .op point succeeded.

tf=4.95817e-008 FROM 1.50418e-007 TO 2e-007

Measurement "tr" FAIL'ed


Date: Wed Aug 21 22:54:07 2024
Total elapsed time: 0.111 seconds.

tnom = 27
temp = 27
method = modified trap
totiter = 3758
traniter = 3751
tranpoints = 1365
accept = 1273
rejected = 92
matrix size = 14
fillins = 0
solver = Normal
Matrix Compiler1: 672 bytes object code size  0.2/0.1/[0.0]
Matrix Compiler2: off  [0.1]/0.1/0.1

