Circuit: *** SPICE deck for cell nand_gate_2in{sch} from library NAND

Ignoring BSIM parameter XL
Ignoring BSIM parameter XW
Ignoring BSIM parameter XL
Ignoring BSIM parameter XW
Warning: Pd = 0 is less than W.
Warning: Ps = 0 is less than W.
Warning: Pd = 0 is less than W.
Warning: Ps = 0 is less than W.
Direct Newton iteration for .op point succeeded.

tf=7.49202e-008 FROM 7.50798e-008 TO 1.5e-007
tr=6.99653e-008 FROM 8.00347e-008 TO 1.5e-007


Date: Wed Aug 21 22:55:59 2024
Total elapsed time: 0.097 seconds.

tnom = 27
temp = 27
method = modified trap
totiter = 2372
traniter = 2365
tranpoints = 1113
accept = 1092
rejected = 21
matrix size = 8
fillins = 0
solver = Normal
Matrix Compiler1:      20 opcodes  0.1/[0.0]/0.0
Matrix Compiler2:      51 opcodes  0.1/[0.1]/0.1

