Circuit: *** SPICE deck for cell nand_gate_3in{sch} from library NAND

Ignoring BSIM parameter XL
Ignoring BSIM parameter XW
Ignoring BSIM parameter XL
Ignoring BSIM parameter XW
Warning: Pd = 0 is less than W.
Warning: Ps = 0 is less than W.
Warning: Pd = 0 is less than W.
Warning: Ps = 0 is less than W.
Direct Newton iteration for .op point succeeded.

tf=5.97674e-008 FROM 1.40233e-007 TO 2e-007
tr=5.26368e-008 FROM 1.47363e-007 TO 2e-007


Date: Wed Aug 21 22:57:18 2024
Total elapsed time: 0.098 seconds.

tnom = 27
temp = 27
method = modified trap
totiter = 2985
traniter = 2978
tranpoints = 1193
accept = 1144
rejected = 49
matrix size = 11
fillins = 0
solver = Normal
Matrix Compiler1: 504 bytes object code size  0.1/0.1/[0.0]
Matrix Compiler2: off  [0.1]/0.1/0.1

