Circuit: *** SPICE deck for cell nor_layout{lay} from library NOR

Ignoring BSIM parameter XL
Ignoring BSIM parameter XW
Ignoring BSIM parameter XL
Ignoring BSIM parameter XW
Direct Newton iteration for .op point succeeded.

tf=2.74743e-007 FROM 2.52574e-008 TO 3e-007
tr=2.6892e-007 FROM 3.10798e-008 TO 3e-007
powerr1: AVG(i(vdd)*v(vdd))=-2.18634e-005 FROM 0 TO 3e-007


Date: Sun Aug 18 20:43:49 2024
Total elapsed time: 0.101 seconds.

tnom = 27
temp = 27
method = modified trap
totiter = 2295
traniter = 2287
tranpoints = 1109
accept = 1091
rejected = 18
matrix size = 8
fillins = 0
solver = Normal
Matrix Compiler1: 282 bytes object code size  0.1/0.0/[0.0]
Matrix Compiler2: off  [0.0]/0.1/0.0

