Circuit: *** SPICE deck for cell not_gate{sch} from library NOT

