Circuit: *** SPICE deck for cell not_layout{lay} from library NOT

Ignoring BSIM parameter XL
Ignoring BSIM parameter XW
Ignoring BSIM parameter XL
Ignoring BSIM parameter XW
Direct Newton iteration for .op point succeeded.

tf=2.50037e-007 FROM 4.99634e-008 TO 3e-007
tr=2.47072e-007 FROM 5.29276e-008 TO 3e-007


Date: Wed Aug 21 22:52:21 2024
Total elapsed time: 0.087 seconds.

tnom = 27
temp = 27
method = modified trap
totiter = 2195
traniter = 2189
tranpoints = 1079
accept = 1070
rejected = 9
matrix size = 5
fillins = 0
solver = Normal
Matrix Compiler1: 204 bytes object code size  0.1/0.0/[0.0]
Matrix Compiler2: off  [0.0]/0.0/0.1

