Circuit: *** SPICE deck for cell note_layout{lay} from library NOT

Ignoring BSIM parameter XL
Ignoring BSIM parameter XW
Ignoring BSIM parameter XL
Ignoring BSIM parameter XW
Direct Newton iteration for .op point succeeded.

tf=2.50311e-007 FROM 4.96892e-008 TO 3e-007
tr=2.48567e-007 FROM 5.14334e-008 TO 3e-007


Date: Sun Aug 18 16:50:44 2024
Total elapsed time: 0.122 seconds.

tnom = 27
temp = 27
method = modified trap
totiter = 2201
traniter = 2193
tranpoints = 1080
accept = 1069
rejected = 11
matrix size = 5
fillins = 0
solver = Normal
Matrix Compiler1:      12 opcodes  0.0/[0.0]/0.0
Matrix Compiler2: off  [0.0]/0.0/0.1

