Circuit: *** SPICE deck for cell test_3in{sch} from library NAND

Ignoring BSIM parameter XL
Ignoring BSIM parameter XW
Ignoring BSIM parameter XL
Ignoring BSIM parameter XW
Warning: Pd = 0 is less than W.
Warning: Ps = 0 is less than W.
Warning: Pd = 0 is less than W.
Warning: Ps = 0 is less than W.
Direct Newton iteration for .op point succeeded.

tf=5.01511e-008 FROM 1.49849e-007 TO 2e-007
tr=4.52972e-008 FROM 1.54703e-007 TO 2e-007


Date: Fri Aug 16 16:39:57 2024
Total elapsed time: 0.106 seconds.

tnom = 27
temp = 27
method = modified trap
totiter = 3458
traniter = 3450
tranpoints = 1252
accept = 1199
rejected = 53
matrix size = 14
fillins = 0
solver = Normal
Matrix Compiler1: 672 bytes object code size  0.2/0.1/[0.1]
Matrix Compiler2: off  [0.1]/0.1/0.1

