Circuit: *** SPICE deck for cell test_4bit{sch} from library 4bit

Ignoring BSIM parameter XL
Ignoring BSIM parameter XW
Ignoring BSIM parameter XL
Ignoring BSIM parameter XW
WARNING: Node OUT is floating.

WARNING: Less than two connections to node OUT.  This node is used by CLOAD.
Warning: Pd = 0 is less than W.
Warning: Ps = 0 is less than W.
Warning: Pd = 0 is less than W.
Warning: Ps = 0 is less than W.
Warning: Pd = 0 is less than W.
Warning: Ps = 0 is less than W.
Direct Newton iteration failed to find .op point.  (Use ".option noopiter" to skip.)
Starting Gmin stepping
Gmin = 10
Gmin = 1.07374
Gmin = 0.115292
Gmin = 0.0123794
Gmin = 0.00132923
Gmin = 0.000142725
Gmin = 1.5325e-005
Gmin = 1.6455e-006
Gmin = 1.76685e-007
Gmin = 1.89714e-008
Gmin = 2.03704e-009
Gmin = 2.18725e-010
Gmin = 2.34854e-011
Gmin = 2.52173e-012
Gmin = 2.70769e-013
Gmin = 0
Gmin stepping succeeded in finding the operating point.



Measurement "tf" FAIL'ed

Measurement "tr" FAIL'ed


Date: Wed Aug 21 23:23:39 2024
Total elapsed time: 0.229 seconds.

tnom = 27
temp = 27
method = modified trap
totiter = 3175
traniter = 2759
tranpoints = 1101
accept = 1082
rejected = 19
matrix size = 77
fillins = 128
solver = Normal
Thread vector: 46.1/19.9[11] 13.6/4.5[11] 4.5/2.2[7] 0.5/1.7[1]  2592/500
Matrix Compiler1: 20.40 KB object code size  3.6/2.2/[1.3]
Matrix Compiler2: 11.65 KB object code size  2.3/1.9/[0.7]

